Pcp_File_Version=4
*** BLOCK A: BASIC INFORMATION *****************************************
Heading
Welcome to HYDRUS
LUnit  TUnit  MUnit  (indicated units are obligatory for all input data)
cm
days
mmol
Kat (0:horizontal plane, 1:axisymmetric vertical flow, 2:vertical plane)
  2
MaxIt   TolTh   TolH InitH/W  (max. number of iterations and tolerances)
  10    0.001      1     f
lWat lChem lSink Short Inter lScrn AtmIn lTemp lWTDep lEquil lExtGen lInv
 t     f     t     f     f     t     f     t     f     f     f     f
lUnsatCh lCFSTr  lHP2  m_lActRSU lRootGr lDummy  lDummy
 f       f       f       f       t       f       f       f
 PrintStep  PrintInterval lEnter
         1              1       f
*** BLOCK B: MATERIAL INFORMATION **************************************
NMat    NLay    hTab1   hTabN     NAniz
  1       1    0.0001   10000
    Model   Hysteresis
      0          0
  thr    ths   Alfa     n    Ks      l
 0.078   0.43  0.036   1.56  24.96    0.5 
*** BLOCK C: TIME INFORMATION ******************************************
        dt       dtMin       dtMax     DMul    DMul2  ItMin ItMax  MPL
     0.0001       1e-05           5     1.3     0.7     3     7     1
      tInit        tMax
          0           1
TPrint(1),TPrint(2),...,TPrint(MPL)
          1 
*** BLOCK E: HEAT TRANSPORT INFORMATION *********************************************************
    Qn      Qo         Disper.       B1          B2          B3          Cn          Co           Cw
   0.59       0       5       1 1.567280e+16 2.534740e+16 9.893880e+16 1.433270e+14 1.873700e+14 3.120350e+14 
       TTop        TBot
          0           0           0           0           0           0 
      tAmpl     tPeriod
          5           1
*** BLOCK F: ROOT WATER UPTAKE INFORMATION *****************************
     Model  (0 - Feddes, 1 - S shape)  Critical Stress Index
        0                              1
       P0       P2H       P2L       P3          r2H        r2L
      -10       -25      -200      -800       -8000         0.5 
POptm(1),POptm(2),...,POptm(NMat)
     0.1 
*** BLOCK D: ROOT GROWTH INFORMATION ***********************************
iRootZone Shape iRootDepthEntry
        2        2
 Horizontal    NPlants
        0        1
 rCenter(nPlant)

     iRFak     tRMin     tRMed     tRMax     tPeriod
        0         0         0        90       365
     ZRMin     ZRMed     ZRMax
     0.01      0.01        90
*** END OF INPUT FILE 'SELECTOR.IN' ************************************
